SO4_A_401
prProtoss 06022403213D 1   1.00000     0.00000     0
Protoss beta proteinsplus
  5  4  0  0  0  0            999 V2000
    0.4240   25.4950   43.8330 S   0  0  0  0  0  0  0  0  0  0  0  0
    1.4410   24.9100   42.9390 O   0  0  0  0  0  0  0  0  0  0  0  0
   -0.9170   25.1060   43.3620 O   0  0  0  0  0  0  0  0  0  0  0  0
    0.6490   24.9640   45.1890 O   0  5  0  0  0  0  0  0  0  0  0  0
    0.5220   26.9730   43.8430 O   0  5  0  0  0  0  0  0  0  0  0  0
  1  2  2  0  0  0  0
  1  3  2  0  0  0  0
  1  4  1  0  0  0  0
  1  5  1  0  0  0  0
M  CHG  2   4  -1   5  -1
M  END
$$$$
SO4_A_402
prProtoss 06022403213D 1   1.00000     0.00000     0
Protoss beta proteinsplus
  5  4  0  0  0  0            999 V2000
   34.1400   39.6100   17.7410 S   0  0  0  0  0  0  0  0  0  0  0  0
   35.0270   39.0300   16.7100 O   0  0  0  0  0  0  0  0  0  0  0  0
   33.0530   40.3960   17.1220 O   0  0  0  0  0  0  0  0  0  0  0  0
   33.5480   38.5040   18.5040 O   0  5  0  0  0  0  0  0  0  0  0  0
   34.9130   40.4980   18.6300 O   0  5  0  0  0  0  0  0  0  0  0  0
  1  2  2  0  0  0  0
  1  3  2  0  0  0  0
  1  4  1  0  0  0  0
  1  5  1  0  0  0  0
M  CHG  2   4  -1   5  -1
M  END
$$$$
AKG_A_1351
prProtoss 06022403213D 1   1.00000     0.00000     0
Protoss beta proteinsplus
 12 11  0  0  0  0            999 V2000
   16.4290   25.5670   29.2690 O   0  0  0  0  0  0  0  0  0  0  0  0
   17.3690   24.6360   27.6180 O   0  5  0  0  0  0  0  0  0  0  0  0
   22.2690   24.1900   27.2990 O   0  0  0  0  0  0  0  0  0  0  0  0
   23.4400   25.8720   27.8790 O   0  5  0  0  0  0  0  0  0  0  0  0
   21.3320   26.8580   29.3140 O   0  0  0  0  0  0  0  0  0  0  0  0
   18.8190   25.7450   29.2020 C   0  0  0  0  0  0  0  0  0  0  0  0
   19.8920   25.3140   28.4280 C   0  0  0  0  0  0  0  0  0  0  0  0
   17.4620   25.2860   28.6600 C   0  0  0  0  0  0  0  0  0  0  0  0
   22.3660   25.2720   27.8760 C   0  0  0  0  0  0  0  0  0  0  0  0
   21.1580   25.8730   28.5960 C   0  0  0  0  0  0  0  0  0  0  0  0
   18.9233   26.2984   30.0284 H   0  0  0  0  0  0  0  0  0  0  0  0
   19.7537   24.5968   27.7450 H   0  0  0  0  0  0  0  0  0  0  0  0
  1  8  2  0  0  0  0
  2  8  1  0  0  0  0
  3  9  2  0  0  0  0
  4  9  1  0  0  0  0
  5 10  2  0  0  0  0
  6  7  2  0  0  0  0
  6  8  1  0  0  0  0
  7 10  1  0  0  0  0
  9 10  1  0  0  0  0
  7 12  1  0  0  0  0
  6 11  1  0  0  0  0
M  CHG  2   2  -1   4  -1
M  END
$$$$
GOL_A_2000
prProtoss 06022403213D 1   1.00000     0.00000     0
Protoss beta proteinsplus
 14 13  0  0  0  0            999 V2000
   14.8860   37.8730   35.0910 O   0  0  0  0  0  0  0  0  0  0  0  0
   18.9390   38.9260   37.3870 O   0  0  0  0  0  0  0  0  0  0  0  0
   16.1990   39.3140   37.1440 O   0  0  0  0  0  0  0  0  0  0  0  0
   16.0060   37.3310   35.7540 C   0  0  0  0  0  0  0  0  0  0  0  0
   18.1140   37.8680   36.9410 C   0  0  0  0  0  0  0  0  0  0  0  0
   16.9100   38.4620   36.2380 C   0  0  0  0  0  0  0  0  0  0  0  0
   14.3770   38.4592   35.7213 H   0  0  0  0  0  0  0  0  0  0  0  0
   19.4244   38.6441   38.2146 H   0  0  0  0  0  0  0  0  0  0  0  0
   16.8021   40.0494   37.4528 H   0  0  0  0  0  0  0  0  0  0  0  0
   16.5147   36.7447   35.1235 H   0  0  0  0  0  0  0  0  0  0  0  0
   15.6998   36.7908   36.5379 H   0  0  0  0  0  0  0  0  0  0  0  0
   17.8129   37.3221   37.7229 H   0  0  0  0  0  0  0  0  0  0  0  0
   18.6234   37.2876   36.3057 H   0  0  0  0  0  0  0  0  0  0  0  0
   17.2176   38.9986   35.4522 H   0  0  0  0  0  0  0  0  0  0  0  0
  1  4  1  0  0  0  0
  2  5  1  0  0  0  0
  3  6  1  0  0  0  0
  4  6  1  0  0  0  0
  5  6  1  0  0  0  0
  1  7  1  0  0  0  0
  2  8  1  0  0  0  0
  3  9  1  0  0  0  0
  4 10  1  0  0  0  0
  4 11  1  0  0  0  0
  5 12  1  0  0  0  0
  5 13  1  0  0  0  0
  6 14  1  0  0  0  0
M  END
$$$$
GOL_A_2001
prProtoss 06022403213D 1   1.00000     0.00000     0
Protoss beta proteinsplus
 14 13  0  0  0  0            999 V2000
   35.0630   44.8730   22.5920 O   0  0  0  0  0  0  0  0  0  0  0  0
   32.6660   43.1390   26.3680 O   0  0  0  0  0  0  0  0  0  0  0  0
   33.7610   45.3390   25.0870 O   0  0  0  0  0  0  0  0  0  0  0  0
   33.9270   44.1010   22.9960 C   0  0  0  0  0  0  0  0  0  0  0  0
   32.6850   43.1910   24.9490 C   0  0  0  0  0  0  0  0  0  0  0  0
   33.8770   44.0200   24.5220 C   0  0  0  0  0  0  0  0  0  0  0  0
   34.8037   45.8363   22.5224 H   0  0  0  0  0  0  0  0  0  0  0  0
   33.4391   43.6591   26.7310 H   0  0  0  0  0  0  0  0  0  0  0  0
   33.2685   45.9323   24.4502 H   0  0  0  0  0  0  0  0  0  0  0  0
   33.9994   43.1788   22.6161 H   0  0  0  0  0  0  0  0  0  0  0  0
   33.0922   44.5359   22.6585 H   0  0  0  0  0  0  0  0  0  0  0  0
   31.8422   43.6126   24.6144 H   0  0  0  0  0  0  0  0  0  0  0  0
   32.7654   42.2661   24.5774 H   0  0  0  0  0  0  0  0  0  0  0  0
   34.7152   43.5899   24.8573 H   0  0  0  0  0  0  0  0  0  0  0  0
  1  4  1  0  0  0  0
  2  5  1  0  0  0  0
  3  6  1  0  0  0  0
  4  6  1  0  0  0  0
  5  6  1  0  0  0  0
  1  7  1  0  0  0  0
  2  8  1  0  0  0  0
  3  9  1  0  0  0  0
  4 10  1  0  0  0  0
  4 11  1  0  0  0  0
  5 12  1  0  0  0  0
  5 13  1  0  0  0  0
  6 14  1  0  0  0  0
M  END
$$$$
GOL_A_2002
prProtoss 06022403213D 1   1.00000     0.00000     0
Protoss beta proteinsplus
 14 13  0  0  0  0            999 V2000
   18.6360   32.9220    6.8470 O   0  0  0  0  0  0  0  0  0  0  0  0
   15.4200   29.4420    7.9340 O   0  0  0  0  0  0  0  0  0  0  0  0
   17.9910   30.1370    6.9690 O   0  0  0  0  0  0  0  0  0  0  0  0
   17.7450   32.4130    7.8450 C   0  0  0  0  0  0  0  0  0  0  0  0
   16.0830   30.6120    8.4120 C   0  0  0  0  0  0  0  0  0  0  0  0
   17.0300   31.1500    7.3290 C   0  0  0  0  0  0  0  0  0  0  0  0
   19.0930   33.7408    7.1945 H   0  0  0  0  0  0  0  0  0  0  0  0
   14.8046   29.0950    8.6417 H   0  0  0  0  0  0  0  0  0  0  0  0
   18.8367   30.5738    6.6624 H   0  0  0  0  0  0  0  0  0  0  0  0
   17.0637   33.1109    8.0658 H   0  0  0  0  0  0  0  0  0  0  0  0
   18.2664   32.1843    8.6671 H   0  0  0  0  0  0  0  0  0  0  0  0
   16.6099   30.3843    9.2309 H   0  0  0  0  0  0  0  0  0  0  0  0
   15.4037   31.3107    8.6363 H   0  0  0  0  0  0  0  0  0  0  0  0
   16.4935   31.3895    6.5198 H   0  0  0  0  0  0  0  0  0  0  0  0
  1  4  1  0  0  0  0
  2  5  1  0  0  0  0
  3  6  1  0  0  0  0
  4  6  1  0  0  0  0
  5  6  1  0  0  0  0
  1  7  1  0  0  0  0
  2  8  1  0  0  0  0
  3  9  1  0  0  0  0
  4 10  1  0  0  0  0
  4 11  1  0  0  0  0
  5 12  1  0  0  0  0
  5 13  1  0  0  0  0
  6 14  1  0  0  0  0
M  END
$$$$
GOL_A_2003
prProtoss 06022403213D 1   1.00000     0.00000     0
Protoss beta proteinsplus
 14 13  0  0  0  0            999 V2000
   28.4920   39.6030   15.9400 O   0  0  0  0  0  0  0  0  0  0  0  0
   31.5160   35.7660   15.8830 O   0  0  0  0  0  0  0  0  0  0  0  0
   30.2220   37.8380   17.3520 O   0  0  0  0  0  0  0  0  0  0  0  0
   28.6420   38.2310   15.5370 C   0  0  0  0  0  0  0  0  0  0  0  0
   30.2130   36.2470   15.5080 C   0  0  0  0  0  0  0  0  0  0  0  0
   30.0400   37.7180   15.9330 C   0  0  0  0  0  0  0  0  0  0  0  0
   27.5832   39.9293   15.6801 H   0  0  0  0  0  0  0  0  0  0  0  0
   31.6129   34.8115   15.6009 H   0  0  0  0  0  0  0  0  0  0  0  0
   31.1905   37.9853   17.5526 H   0  0  0  0  0  0  0  0  0  0  0  0
   28.5324   38.1628   14.5454 H   0  0  0  0  0  0  0  0  0  0  0  0
   27.9445   37.6746   15.9885 H   0  0  0  0  0  0  0  0  0  0  0  0
   29.5144   35.6900   15.9572 H   0  0  0  0  0  0  0  0  0  0  0  0
   30.1087   36.1763   14.5160 H   0  0  0  0  0  0  0  0  0  0  0  0
   30.7315   38.2723   15.4698 H   0  0  0  0  0  0  0  0  0  0  0  0
  1  4  1  0  0  0  0
  2  5  1  0  0  0  0
  3  6  1  0  0  0  0
  4  6  1  0  0  0  0
  5  6  1  0  0  0  0
  1  7  1  0  0  0  0
  2  8  1  0  0  0  0
  3  9  1  0  0  0  0
  4 10  1  0  0  0  0
  4 11  1  0  0  0  0
  5 12  1  0  0  0  0
  5 13  1  0  0  0  0
  6 14  1  0  0  0  0
M  END
$$$$
